6
        Energy:       0.6657691
C         -0.74080       -0.00303       -0.00000
O          0.66943       -0.12776       -0.00000
H         -1.05984        0.53582        0.89553
H         -1.05984        0.53582       -0.89553
H         -1.18580       -1.00083        0.00000
H          1.03596        0.77287        0.00000